Version 4
SHEET 1 2552 1216
WIRE -80 16 -432 16
WIRE 192 16 -80 16
WIRE 560 16 192 16
WIRE 704 16 560 16
WIRE -80 96 -80 16
WIRE 192 96 192 16
WIRE 560 96 560 16
WIRE 48 144 -16 144
WIRE 128 144 48 144
WIRE 496 144 320 144
WIRE -432 176 -432 16
WIRE -80 208 -80 192
WIRE 48 208 48 144
WIRE 48 208 -80 208
WIRE 192 240 192 192
WIRE 320 240 320 144
WIRE 320 240 192 240
WIRE 368 240 320 240
WIRE 560 240 560 192
WIRE 560 240 464 240
WIRE -80 288 -80 208
WIRE 192 288 192 240
WIRE -144 336 -208 336
WIRE -128 336 -144 336
WIRE 288 336 256 336
WIRE 560 352 560 240
WIRE 704 352 560 352
WIRE -80 432 -80 384
WIRE 48 432 -80 432
WIRE 192 432 192 384
WIRE 192 432 48 432
WIRE 288 480 288 336
WIRE 288 480 -208 480
WIRE -432 496 -432 272
WIRE -336 496 -432 496
WIRE 464 512 -48 512
WIRE 560 528 560 352
WIRE -432 544 -432 496
WIRE 48 544 48 432
WIRE 464 576 464 512
WIRE 496 576 464 576
WIRE -336 592 -336 496
WIRE -336 592 -368 592
WIRE -48 592 -48 512
WIRE -48 592 -336 592
WIRE -16 592 -48 592
WIRE -432 720 -432 640
WIRE 48 720 48 640
WIRE 48 720 -432 720
WIRE 560 720 560 624
WIRE 560 720 48 720
WIRE 704 720 560 720
FLAG 704 352 OUT
IOPIN 704 352 Out
FLAG 704 16 VDD
IOPIN 704 16 BiDir
FLAG 704 720 VSS
IOPIN 704 720 BiDir
FLAG -208 336 INM
IOPIN -208 336 In
FLAG -208 480 IMP
IOPIN -208 480 In
SYMBOL MinedaLIB\\PMOS_MIN -16 144 M0
SYMATTR InstName M1
SYMATTR Value2 l=10u w=40u m=2
SYMBOL MinedaLIB\\PMOS_MIN 128 144 R0
SYMATTR InstName M2
SYMATTR Value2 l=10u w=40u m=2
SYMBOL MinedaLIB\\NMOS_MIN -144 336 R0
SYMATTR InstName M3
SYMATTR Value2 l=10u w=10u m=1
SYMBOL MinedaLIB\\NMOS_MIN 256 336 M0
SYMATTR InstName M4
SYMATTR Value2 l=10u w=10u m=1
SYMBOL MinedaLIB\\PMOS_MIN 496 144 R0
SYMATTR InstName M5
SYMATTR Value2 l=10u w=40u m=8
SYMBOL MinedaLIB\\NMOS_MIN 496 576 R0
SYMATTR InstName M6
SYMATTR Value2 l=10u w=10u m=4
SYMBOL MinedaLIB\\NMOS_MIN -16 592 R0
SYMATTR InstName M7
SYMATTR Value2 l=10u w=10u m=2
SYMBOL MinedaLIB\\NMOS_MIN -368 592 M0
SYMATTR InstName M8
SYMATTR Value2 l=10u w=10u m=4
SYMBOL MinedaLIB\\RES_MIN -432 272 R180
WINDOW 0 32 48 Left 2
WINDOW 3 32 0 Left 2
SYMATTR InstName R1
SYMATTR Value 36k
SYMBOL MinedaLIB\\PMOS_MIN 912 -128 R0
SYMATTR InstName M9
SYMATTR Value2 l=10u w=40u m=1
SYMBOL MinedaLIB\\PMOS_MIN 1040 -128 R0
SYMATTR InstName M10
SYMATTR Value2 l=10u w=40u m=1
SYMBOL MinedaLIB\\PMOS_MIN 1168 -128 R0
SYMATTR InstName M11
SYMATTR Value2 l=10u w=40u m=1
SYMBOL MinedaLIB\\PMOS_MIN 1296 -128 R0
SYMATTR InstName M12
SYMATTR Value2 l=10u w=40u m=1
SYMBOL MinedaLIB\\NMOS_MIN 912 16 R0
SYMATTR InstName M13
SYMATTR Value2 l=10u w=10u m=1
SYMBOL MinedaLIB\\NMOS_MIN 1040 16 R0
SYMATTR InstName M14
SYMATTR Value2 l=10u w=10u m=1
SYMBOL MinedaLIB\\NMOS_MIN 1168 16 R0
SYMATTR InstName M15
SYMATTR Value2 l=10u w=10u m=1
SYMBOL MinedaLIB\\NMOS_MIN 1296 16 R0
SYMATTR InstName M16
SYMATTR Value2 l=10u w=10u m=1
SYMBOL MinedaLIB\\RES_MIN 1008 544 R90
WINDOW 0 -16 48 VBottom 2
WINDOW 3 16 48 VTop 2
SYMATTR InstName R11
SYMATTR Value 3.6k
SYMBOL MinedaLIB\\RES_MIN 1136 544 R90
WINDOW 0 -16 48 VBottom 2
WINDOW 3 16 48 VTop 2
SYMATTR InstName R12
SYMATTR Value 3.6k
SYMBOL MinedaLIB\\RES_MIN 1264 544 R90
WINDOW 0 -16 48 VBottom 2
WINDOW 3 16 48 VTop 2
SYMATTR InstName R13
SYMATTR Value 3.6k
SYMBOL MinedaLIB\\RES_MIN 1392 544 R90
WINDOW 0 -16 48 VBottom 2
WINDOW 3 16 48 VTop 2
SYMATTR InstName R14
SYMATTR Value 3.6k
SYMBOL MinedaLIB\\RES_MIN 1520 544 R90
WINDOW 0 -16 48 VBottom 2
WINDOW 3 16 48 VTop 2
SYMATTR InstName R15
SYMATTR Value 3.6k
SYMBOL MinedaLIB\\RES_MIN 1648 544 R90
WINDOW 0 -16 48 VBottom 2
WINDOW 3 16 48 VTop 2
SYMATTR InstName R16
SYMATTR Value 3.6k
SYMBOL MinedaLIB\\RES_MIN 1008 656 R90
WINDOW 0 -16 48 VBottom 2
WINDOW 3 16 48 VTop 2
SYMATTR InstName R17
SYMATTR Value 3.6k
SYMBOL MinedaLIB\\RES_MIN 1136 656 R90
WINDOW 0 -16 48 VBottom 2
WINDOW 3 16 48 VTop 2
SYMATTR InstName R18
SYMATTR Value 3.6k
SYMBOL MinedaLIB\\RES_MIN 1264 656 R90
WINDOW 0 -16 48 VBottom 2
WINDOW 3 16 48 VTop 2
SYMATTR InstName R19
SYMATTR Value 3.6k
SYMBOL MinedaLIB\\RES_MIN 1392 656 R90
WINDOW 0 -16 48 VBottom 2
WINDOW 3 16 48 VTop 2
SYMATTR InstName R20
SYMATTR Value 3.6k
SYMBOL MinedaLIB\\RES_MIN 1520 656 R90
WINDOW 0 -16 48 VBottom 2
WINDOW 3 16 48 VTop 2
SYMATTR InstName R21
SYMATTR Value 3.6k
SYMBOL MinedaLIB\\RES_MIN 1648 656 R90
WINDOW 0 -16 48 VBottom 2
WINDOW 3 16 48 VTop 2
SYMATTR InstName R22
SYMATTR Value 3.6k
SYMBOL MinedaLIB\\RES_MIN 1008 768 R90
WINDOW 0 -16 48 VBottom 2
WINDOW 3 16 48 VTop 2
SYMATTR InstName R23
SYMATTR Value 3.6k
SYMBOL MinedaLIB\\RES_MIN 1136 768 R90
WINDOW 0 -16 48 VBottom 2
WINDOW 3 16 48 VTop 2
SYMATTR InstName R24
SYMATTR Value 3.6k
SYMBOL MinedaLIB\\RES_MIN 1264 768 R90
WINDOW 0 -16 48 VBottom 2
WINDOW 3 16 48 VTop 2
SYMATTR InstName R25
SYMATTR Value 3.6k
SYMBOL MinedaLIB\\RES_MIN 1392 768 R90
WINDOW 0 -16 48 VBottom 2
WINDOW 3 16 48 VTop 2
SYMATTR InstName R26
SYMATTR Value 3.6k
SYMBOL MinedaLIB\\RES_MIN 1520 768 R90
WINDOW 0 -16 48 VBottom 2
WINDOW 3 16 48 VTop 2
SYMATTR InstName R27
SYMATTR Value 3.6k
SYMBOL MinedaLIB\\RES_MIN 1648 768 R90
WINDOW 0 -16 48 VBottom 2
WINDOW 3 16 48 VTop 2
SYMATTR InstName R28
SYMATTR Value 3.6k
SYMBOL MinedaLIB\\RES_MIN 1008 880 R90
WINDOW 0 -16 48 VBottom 2
WINDOW 3 16 48 VTop 2
SYMATTR InstName R29
SYMATTR Value 3.6k
SYMBOL MinedaLIB\\RES_MIN 1136 880 R90
WINDOW 0 -16 48 VBottom 2
WINDOW 3 16 48 VTop 2
SYMATTR InstName R30
SYMATTR Value 3.6k
SYMBOL MinedaLIB\\RES_MIN 1264 880 R90
WINDOW 0 -16 48 VBottom 2
WINDOW 3 16 48 VTop 2
SYMATTR InstName R31
SYMATTR Value 3.6k
SYMBOL MinedaLIB\\RES_MIN 1392 880 R90
WINDOW 0 -16 48 VBottom 2
WINDOW 3 16 48 VTop 2
SYMATTR InstName R32
SYMATTR Value 3.6k
SYMBOL MinedaLIB\\CAP_MIN 368 240 R270
WINDOW 0 22 48 VTop 2
WINDOW 3 -22 48 VBottom 2
SYMATTR InstName C1
SYMATTR Value 1.656p
SYMBOL MinedaLIB\\CAP_MIN 912 160 R270
WINDOW 0 22 48 VTop 2
WINDOW 3 -22 48 VBottom 2
SYMATTR InstName C2
SYMATTR Value 0.414p
SYMBOL MinedaLIB\\CAP_MIN 1056 160 R270
WINDOW 0 22 48 VTop 2
WINDOW 3 -22 48 VBottom 2
SYMATTR InstName C3
SYMATTR Value 0.414p
SYMBOL MinedaLIB\\CAP_MIN 1200 160 R270
WINDOW 0 22 48 VTop 2
WINDOW 3 -22 48 VBottom 2
SYMATTR InstName C4
SYMATTR Value 0.414p
SYMBOL MinedaLIB\\CAP_MIN 1328 160 R270
WINDOW 0 22 48 VTop 2
WINDOW 3 -22 48 VBottom 2
SYMATTR InstName C5
SYMATTR Value 0.414p
SYMBOL MinedaLIB\\CAP_MIN 912 272 R270
WINDOW 0 22 48 VTop 2
WINDOW 3 -22 48 VBottom 2
SYMATTR InstName C6
SYMATTR Value 0.414p
SYMBOL MinedaLIB\\CAP_MIN 1056 272 R270
WINDOW 0 22 48 VTop 2
WINDOW 3 -22 48 VBottom 2
SYMATTR InstName C7
SYMATTR Value 0.414p
SYMBOL MinedaLIB\\CAP_MIN 1200 272 R270
WINDOW 0 22 48 VTop 2
WINDOW 3 -22 48 VBottom 2
SYMATTR InstName C8
SYMATTR Value 0.414p
SYMBOL MinedaLIB\\CAP_MIN 1328 272 R270
WINDOW 0 22 48 VTop 2
WINDOW 3 -22 48 VBottom 2
SYMATTR InstName C9
SYMATTR Value 0.414p
SYMBOL MinedaLIB\\CAP_MIN 912 384 R270
WINDOW 0 22 48 VTop 2
WINDOW 3 -22 48 VBottom 2
SYMATTR InstName C10
SYMATTR Value 0.414p
SYMBOL MinedaLIB\\CAP_MIN 1056 384 R270
WINDOW 0 22 48 VTop 2
WINDOW 3 -22 48 VBottom 2
SYMATTR InstName C11
SYMATTR Value 0.414p
SYMBOL MinedaLIB\\CAP_MIN 1200 384 R270
WINDOW 0 22 48 VTop 2
WINDOW 3 -22 48 VBottom 2
SYMATTR InstName C12
SYMATTR Value 0.414p
SYMBOL MinedaLIB\\CAP_MIN 1328 384 R270
WINDOW 0 22 48 VTop 2
WINDOW 3 -22 48 VBottom 2
SYMATTR InstName C13
SYMATTR Value 0.414p
TEXT -432 -168 Left 2 !.include "C:\\Users\\michioto\\KLayout\\salt\\ICPS2023_5\\Technology\\tech\\models\\SOI_CMOS"
